/*--------------------------------*- C++ -*----------------------------------*\ 
| ========                 |                                                 | 
| \      /  F ield         | OpenFOAM: The Open Source CFD Toolbox           | 
|  \    /   O peration     | Version:  4.1                                   | 
|   \  /    A nd           | Web:      www.OpenFOAM.org                      | 
|    \/     M anipulation  |                                                 | 
\*---------------------------------------------------------------------------*/ 
FoamFile 
{ 
 	 version 	 2.0; 
 	 format 	 ascii; 
 	 class 		 dictionary; 
 	 object 	 blockMeshDict; 
} 
// * * * * * * * * * * * * * * * * * * * * * * * * * * * * * * * * * * * * * // 

convertToMeters 	1; 

vertices 
( 
	 ( 0.0 0.0 0.0 )	// 000
	 ( 0.000594 0.0 0.0 )	// 001
	 ( 0.000594 0.000594 0.0 )	// 002
	 ( 0.0 0.000594 0.0 )	// 003
	 ( 0.0 0.0 0.005 )	// 004
	 ( 0.000594 0.0 0.005 )	// 005
	 ( 0.000594 0.000594 0.005 )	// 006
	 ( 0.0 0.000594 0.005 )	// 007
	 ( 0.000594 0.0 0.0 )	// 008
	 ( 0.000625 0.0 0.0 )	// 009
	 ( 0.000625 0.000594 0.0 )	// 010
	 ( 0.000594 0.000594 0.0 )	// 011
	 ( 0.000594 0.0 0.005 )	// 012
	 ( 0.000625 0.0 0.005 )	// 013
	 ( 0.000625 0.000594 0.005 )	// 014
	 ( 0.000594 0.000594 0.005 )	// 015
	 ( 0.000625 0.0 0.0 )	// 016
	 ( 0.000841 0.0 0.0 )	// 017
	 ( 0.000841 0.000594 0.0 )	// 018
	 ( 0.000625 0.000594 0.0 )	// 019
	 ( 0.000625 0.0 0.005 )	// 020
	 ( 0.000841 0.0 0.005 )	// 021
	 ( 0.000841 0.000594 0.005 )	// 022
	 ( 0.000625 0.000594 0.005 )	// 023
	 ( 0.000841 0.0 0.0 )	// 024
	 ( 0.000872 0.0 0.0 )	// 025
	 ( 0.000872 0.000594 0.0 )	// 026
	 ( 0.000841 0.000594 0.0 )	// 027
	 ( 0.000841 0.0 0.005 )	// 028
	 ( 0.000872 0.0 0.005 )	// 029
	 ( 0.000872 0.000594 0.005 )	// 030
	 ( 0.000841 0.000594 0.005 )	// 031
	 ( 0.000872 0.0 0.0 )	// 032
	 ( 0.001466 0.0 0.0 )	// 033
	 ( 0.001466 0.000594 0.0 )	// 034
	 ( 0.000872 0.000594 0.0 )	// 035
	 ( 0.000872 0.0 0.005 )	// 036
	 ( 0.001466 0.0 0.005 )	// 037
	 ( 0.001466 0.000594 0.005 )	// 038
	 ( 0.000872 0.000594 0.005 )	// 039
	 ( 0.001466 0.0 0.0 )	// 040
	 ( 0.00206 0.0 0.0 )	// 041
	 ( 0.00206 0.000594 0.0 )	// 042
	 ( 0.001466 0.000594 0.0 )	// 043
	 ( 0.001466 0.0 0.005 )	// 044
	 ( 0.00206 0.0 0.005 )	// 045
	 ( 0.00206 0.000594 0.005 )	// 046
	 ( 0.001466 0.000594 0.005 )	// 047
	 ( 0.00206 0.0 0.0 )	// 048
	 ( 0.002091 0.0 0.0 )	// 049
	 ( 0.002091 0.000594 0.0 )	// 050
	 ( 0.00206 0.000594 0.0 )	// 051
	 ( 0.00206 0.0 0.005 )	// 052
	 ( 0.002091 0.0 0.005 )	// 053
	 ( 0.002091 0.000594 0.005 )	// 054
	 ( 0.00206 0.000594 0.005 )	// 055
	 ( 0.002091 0.0 0.0 )	// 056
	 ( 0.002307 0.0 0.0 )	// 057
	 ( 0.002307 0.000594 0.0 )	// 058
	 ( 0.002091 0.000594 0.0 )	// 059
	 ( 0.002091 0.0 0.005 )	// 060
	 ( 0.002307 0.0 0.005 )	// 061
	 ( 0.002307 0.000594 0.005 )	// 062
	 ( 0.002091 0.000594 0.005 )	// 063
	 ( 0.002307 0.0 0.0 )	// 064
	 ( 0.002338 0.0 0.0 )	// 065
	 ( 0.002338 0.000594 0.0 )	// 066
	 ( 0.002307 0.000594 0.0 )	// 067
	 ( 0.002307 0.0 0.005 )	// 068
	 ( 0.002338 0.0 0.005 )	// 069
	 ( 0.002338 0.000594 0.005 )	// 070
	 ( 0.002307 0.000594 0.005 )	// 071
	 ( 0.002338 0.0 0.0 )	// 072
	 ( 0.002932 0.0 0.0 )	// 073
	 ( 0.002932 0.000594 0.0 )	// 074
	 ( 0.002338 0.000594 0.0 )	// 075
	 ( 0.002338 0.0 0.005 )	// 076
	 ( 0.002932 0.0 0.005 )	// 077
	 ( 0.002932 0.000594 0.005 )	// 078
	 ( 0.002338 0.000594 0.005 )	// 079
	 ( 0.002932 0.0 0.0 )	// 080
	 ( 0.003526 0.0 0.0 )	// 081
	 ( 0.003526 0.000594 0.0 )	// 082
	 ( 0.002932 0.000594 0.0 )	// 083
	 ( 0.002932 0.0 0.005 )	// 084
	 ( 0.003526 0.0 0.005 )	// 085
	 ( 0.003526 0.000594 0.005 )	// 086
	 ( 0.002932 0.000594 0.005 )	// 087
	 ( 0.003526 0.0 0.0 )	// 088
	 ( 0.003557 0.0 0.0 )	// 089
	 ( 0.003557 0.000594 0.0 )	// 090
	 ( 0.003526 0.000594 0.0 )	// 091
	 ( 0.003526 0.0 0.005 )	// 092
	 ( 0.003557 0.0 0.005 )	// 093
	 ( 0.003557 0.000594 0.005 )	// 094
	 ( 0.003526 0.000594 0.005 )	// 095
	 ( 0.003557 0.0 0.0 )	// 096
	 ( 0.003773 0.0 0.0 )	// 097
	 ( 0.003773 0.000594 0.0 )	// 098
	 ( 0.003557 0.000594 0.0 )	// 099
	 ( 0.003557 0.0 0.005 )	// 100
	 ( 0.003773 0.0 0.005 )	// 101
	 ( 0.003773 0.000594 0.005 )	// 102
	 ( 0.003557 0.000594 0.005 )	// 103
	 ( 0.003773 0.0 0.0 )	// 104
	 ( 0.003804 0.0 0.0 )	// 105
	 ( 0.003804 0.000594 0.0 )	// 106
	 ( 0.003773 0.000594 0.0 )	// 107
	 ( 0.003773 0.0 0.005 )	// 108
	 ( 0.003804 0.0 0.005 )	// 109
	 ( 0.003804 0.000594 0.005 )	// 110
	 ( 0.003773 0.000594 0.005 )	// 111
	 ( 0.003804 0.0 0.0 )	// 112
	 ( 0.004398 0.0 0.0 )	// 113
	 ( 0.004398 0.000594 0.0 )	// 114
	 ( 0.003804 0.000594 0.0 )	// 115
	 ( 0.003804 0.0 0.005 )	// 116
	 ( 0.004398 0.0 0.005 )	// 117
	 ( 0.004398 0.000594 0.005 )	// 118
	 ( 0.003804 0.000594 0.005 )	// 119
	 ( 0.004398 0.0 0.0 )	// 120
	 ( 0.004992 0.0 0.0 )	// 121
	 ( 0.004992 0.000594 0.0 )	// 122
	 ( 0.004398 0.000594 0.0 )	// 123
	 ( 0.004398 0.0 0.005 )	// 124
	 ( 0.004992 0.0 0.005 )	// 125
	 ( 0.004992 0.000594 0.005 )	// 126
	 ( 0.004398 0.000594 0.005 )	// 127
	 ( 0.004992 0.0 0.0 )	// 128
	 ( 0.005023 0.0 0.0 )	// 129
	 ( 0.005023 0.000594 0.0 )	// 130
	 ( 0.004992 0.000594 0.0 )	// 131
	 ( 0.004992 0.0 0.005 )	// 132
	 ( 0.005023 0.0 0.005 )	// 133
	 ( 0.005023 0.000594 0.005 )	// 134
	 ( 0.004992 0.000594 0.005 )	// 135
	 ( 0.005023 0.0 0.0 )	// 136
	 ( 0.005239 0.0 0.0 )	// 137
	 ( 0.005239 0.000594 0.0 )	// 138
	 ( 0.005023 0.000594 0.0 )	// 139
	 ( 0.005023 0.0 0.005 )	// 140
	 ( 0.005239 0.0 0.005 )	// 141
	 ( 0.005239 0.000594 0.005 )	// 142
	 ( 0.005023 0.000594 0.005 )	// 143
	 ( 0.005239 0.0 0.0 )	// 144
	 ( 0.00527 0.0 0.0 )	// 145
	 ( 0.00527 0.000594 0.0 )	// 146
	 ( 0.005239 0.000594 0.0 )	// 147
	 ( 0.005239 0.0 0.005 )	// 148
	 ( 0.00527 0.0 0.005 )	// 149
	 ( 0.00527 0.000594 0.005 )	// 150
	 ( 0.005239 0.000594 0.005 )	// 151
	 ( 0.00527 0.0 0.0 )	// 152
	 ( 0.005864 0.0 0.0 )	// 153
	 ( 0.005864 0.000594 0.0 )	// 154
	 ( 0.00527 0.000594 0.0 )	// 155
	 ( 0.00527 0.0 0.005 )	// 156
	 ( 0.005864 0.0 0.005 )	// 157
	 ( 0.005864 0.000594 0.005 )	// 158
	 ( 0.00527 0.000594 0.005 )	// 159
	 ( 0.0 0.000594 0.0 )	// 160
	 ( 0.000594 0.000594 0.0 )	// 161
	 ( 0.000594 0.000625 0.0 )	// 162
	 ( 0.0 0.000625 0.0 )	// 163
	 ( 0.0 0.000594 0.005 )	// 164
	 ( 0.000594 0.000594 0.005 )	// 165
	 ( 0.000594 0.000625 0.005 )	// 166
	 ( 0.0 0.000625 0.005 )	// 167
	 ( 0.000594 0.000594 0.0 )	// 168
	 ( 0.000625 0.000594 0.0 )	// 169
	 ( 0.000625 0.000625 0.0 )	// 170
	 ( 0.000594 0.000625 0.0 )	// 171
	 ( 0.000594 0.000594 0.005 )	// 172
	 ( 0.000625 0.000594 0.005 )	// 173
	 ( 0.000625 0.000625 0.005 )	// 174
	 ( 0.000594 0.000625 0.005 )	// 175
	 ( 0.000625 0.000594 0.0 )	// 176
	 ( 0.000841 0.000594 0.0 )	// 177
	 ( 0.000841 0.000625 0.0 )	// 178
	 ( 0.000625 0.000625 0.0 )	// 179
	 ( 0.000625 0.000594 0.005 )	// 180
	 ( 0.000841 0.000594 0.005 )	// 181
	 ( 0.000841 0.000625 0.005 )	// 182
	 ( 0.000625 0.000625 0.005 )	// 183
	 ( 0.000841 0.000594 0.0 )	// 184
	 ( 0.000872 0.000594 0.0 )	// 185
	 ( 0.000872 0.000625 0.0 )	// 186
	 ( 0.000841 0.000625 0.0 )	// 187
	 ( 0.000841 0.000594 0.005 )	// 188
	 ( 0.000872 0.000594 0.005 )	// 189
	 ( 0.000872 0.000625 0.005 )	// 190
	 ( 0.000841 0.000625 0.005 )	// 191
	 ( 0.000872 0.000594 0.0 )	// 192
	 ( 0.001466 0.000594 0.0 )	// 193
	 ( 0.001466 0.000625 0.0 )	// 194
	 ( 0.000872 0.000625 0.0 )	// 195
	 ( 0.000872 0.000594 0.005 )	// 196
	 ( 0.001466 0.000594 0.005 )	// 197
	 ( 0.001466 0.000625 0.005 )	// 198
	 ( 0.000872 0.000625 0.005 )	// 199
	 ( 0.001466 0.000594 0.0 )	// 200
	 ( 0.00206 0.000594 0.0 )	// 201
	 ( 0.00206 0.000625 0.0 )	// 202
	 ( 0.001466 0.000625 0.0 )	// 203
	 ( 0.001466 0.000594 0.005 )	// 204
	 ( 0.00206 0.000594 0.005 )	// 205
	 ( 0.00206 0.000625 0.005 )	// 206
	 ( 0.001466 0.000625 0.005 )	// 207
	 ( 0.00206 0.000594 0.0 )	// 208
	 ( 0.002091 0.000594 0.0 )	// 209
	 ( 0.002091 0.000625 0.0 )	// 210
	 ( 0.00206 0.000625 0.0 )	// 211
	 ( 0.00206 0.000594 0.005 )	// 212
	 ( 0.002091 0.000594 0.005 )	// 213
	 ( 0.002091 0.000625 0.005 )	// 214
	 ( 0.00206 0.000625 0.005 )	// 215
	 ( 0.002091 0.000594 0.0 )	// 216
	 ( 0.002307 0.000594 0.0 )	// 217
	 ( 0.002307 0.000625 0.0 )	// 218
	 ( 0.002091 0.000625 0.0 )	// 219
	 ( 0.002091 0.000594 0.005 )	// 220
	 ( 0.002307 0.000594 0.005 )	// 221
	 ( 0.002307 0.000625 0.005 )	// 222
	 ( 0.002091 0.000625 0.005 )	// 223
	 ( 0.002307 0.000594 0.0 )	// 224
	 ( 0.002338 0.000594 0.0 )	// 225
	 ( 0.002338 0.000625 0.0 )	// 226
	 ( 0.002307 0.000625 0.0 )	// 227
	 ( 0.002307 0.000594 0.005 )	// 228
	 ( 0.002338 0.000594 0.005 )	// 229
	 ( 0.002338 0.000625 0.005 )	// 230
	 ( 0.002307 0.000625 0.005 )	// 231
	 ( 0.002338 0.000594 0.0 )	// 232
	 ( 0.002932 0.000594 0.0 )	// 233
	 ( 0.002932 0.000625 0.0 )	// 234
	 ( 0.002338 0.000625 0.0 )	// 235
	 ( 0.002338 0.000594 0.005 )	// 236
	 ( 0.002932 0.000594 0.005 )	// 237
	 ( 0.002932 0.000625 0.005 )	// 238
	 ( 0.002338 0.000625 0.005 )	// 239
	 ( 0.002932 0.000594 0.0 )	// 240
	 ( 0.003526 0.000594 0.0 )	// 241
	 ( 0.003526 0.000625 0.0 )	// 242
	 ( 0.002932 0.000625 0.0 )	// 243
	 ( 0.002932 0.000594 0.005 )	// 244
	 ( 0.003526 0.000594 0.005 )	// 245
	 ( 0.003526 0.000625 0.005 )	// 246
	 ( 0.002932 0.000625 0.005 )	// 247
	 ( 0.003526 0.000594 0.0 )	// 248
	 ( 0.003557 0.000594 0.0 )	// 249
	 ( 0.003557 0.000625 0.0 )	// 250
	 ( 0.003526 0.000625 0.0 )	// 251
	 ( 0.003526 0.000594 0.005 )	// 252
	 ( 0.003557 0.000594 0.005 )	// 253
	 ( 0.003557 0.000625 0.005 )	// 254
	 ( 0.003526 0.000625 0.005 )	// 255
	 ( 0.003557 0.000594 0.0 )	// 256
	 ( 0.003773 0.000594 0.0 )	// 257
	 ( 0.003773 0.000625 0.0 )	// 258
	 ( 0.003557 0.000625 0.0 )	// 259
	 ( 0.003557 0.000594 0.005 )	// 260
	 ( 0.003773 0.000594 0.005 )	// 261
	 ( 0.003773 0.000625 0.005 )	// 262
	 ( 0.003557 0.000625 0.005 )	// 263
	 ( 0.003773 0.000594 0.0 )	// 264
	 ( 0.003804 0.000594 0.0 )	// 265
	 ( 0.003804 0.000625 0.0 )	// 266
	 ( 0.003773 0.000625 0.0 )	// 267
	 ( 0.003773 0.000594 0.005 )	// 268
	 ( 0.003804 0.000594 0.005 )	// 269
	 ( 0.003804 0.000625 0.005 )	// 270
	 ( 0.003773 0.000625 0.005 )	// 271
	 ( 0.003804 0.000594 0.0 )	// 272
	 ( 0.004398 0.000594 0.0 )	// 273
	 ( 0.004398 0.000625 0.0 )	// 274
	 ( 0.003804 0.000625 0.0 )	// 275
	 ( 0.003804 0.000594 0.005 )	// 276
	 ( 0.004398 0.000594 0.005 )	// 277
	 ( 0.004398 0.000625 0.005 )	// 278
	 ( 0.003804 0.000625 0.005 )	// 279
	 ( 0.004398 0.000594 0.0 )	// 280
	 ( 0.004992 0.000594 0.0 )	// 281
	 ( 0.004992 0.000625 0.0 )	// 282
	 ( 0.004398 0.000625 0.0 )	// 283
	 ( 0.004398 0.000594 0.005 )	// 284
	 ( 0.004992 0.000594 0.005 )	// 285
	 ( 0.004992 0.000625 0.005 )	// 286
	 ( 0.004398 0.000625 0.005 )	// 287
	 ( 0.004992 0.000594 0.0 )	// 288
	 ( 0.005023 0.000594 0.0 )	// 289
	 ( 0.005023 0.000625 0.0 )	// 290
	 ( 0.004992 0.000625 0.0 )	// 291
	 ( 0.004992 0.000594 0.005 )	// 292
	 ( 0.005023 0.000594 0.005 )	// 293
	 ( 0.005023 0.000625 0.005 )	// 294
	 ( 0.004992 0.000625 0.005 )	// 295
	 ( 0.005023 0.000594 0.0 )	// 296
	 ( 0.005239 0.000594 0.0 )	// 297
	 ( 0.005239 0.000625 0.0 )	// 298
	 ( 0.005023 0.000625 0.0 )	// 299
	 ( 0.005023 0.000594 0.005 )	// 300
	 ( 0.005239 0.000594 0.005 )	// 301
	 ( 0.005239 0.000625 0.005 )	// 302
	 ( 0.005023 0.000625 0.005 )	// 303
	 ( 0.005239 0.000594 0.0 )	// 304
	 ( 0.00527 0.000594 0.0 )	// 305
	 ( 0.00527 0.000625 0.0 )	// 306
	 ( 0.005239 0.000625 0.0 )	// 307
	 ( 0.005239 0.000594 0.005 )	// 308
	 ( 0.00527 0.000594 0.005 )	// 309
	 ( 0.00527 0.000625 0.005 )	// 310
	 ( 0.005239 0.000625 0.005 )	// 311
	 ( 0.00527 0.000594 0.0 )	// 312
	 ( 0.005864 0.000594 0.0 )	// 313
	 ( 0.005864 0.000625 0.0 )	// 314
	 ( 0.00527 0.000625 0.0 )	// 315
	 ( 0.00527 0.000594 0.005 )	// 316
	 ( 0.005864 0.000594 0.005 )	// 317
	 ( 0.005864 0.000625 0.005 )	// 318
	 ( 0.00527 0.000625 0.005 )	// 319
	 ( 0.0 0.000625 0.0 )	// 320
	 ( 0.000594 0.000625 0.0 )	// 321
	 ( 0.000594 0.000841 0.0 )	// 322
	 ( 0.0 0.000841 0.0 )	// 323
	 ( 0.0 0.000625 0.005 )	// 324
	 ( 0.000594 0.000625 0.005 )	// 325
	 ( 0.000594 0.000841 0.005 )	// 326
	 ( 0.0 0.000841 0.005 )	// 327
	 ( 0.000594 0.000625 0.0 )	// 328
	 ( 0.000625 0.000625 0.0 )	// 329
	 ( 0.000625 0.000841 0.0 )	// 330
	 ( 0.000594 0.000841 0.0 )	// 331
	 ( 0.000594 0.000625 0.005 )	// 332
	 ( 0.000625 0.000625 0.005 )	// 333
	 ( 0.000625 0.000841 0.005 )	// 334
	 ( 0.000594 0.000841 0.005 )	// 335
	 ( 0.000625 0.000625 0.0 )	// 336
	 ( 0.000841 0.000625 0.0 )	// 337
	 ( 0.000841 0.000841 0.0 )	// 338
	 ( 0.000625 0.000841 0.0 )	// 339
	 ( 0.000625 0.000625 0.005 )	// 340
	 ( 0.000841 0.000625 0.005 )	// 341
	 ( 0.000841 0.000841 0.005 )	// 342
	 ( 0.000625 0.000841 0.005 )	// 343
	 ( 0.000841 0.000625 0.0 )	// 344
	 ( 0.000872 0.000625 0.0 )	// 345
	 ( 0.000872 0.000841 0.0 )	// 346
	 ( 0.000841 0.000841 0.0 )	// 347
	 ( 0.000841 0.000625 0.005 )	// 348
	 ( 0.000872 0.000625 0.005 )	// 349
	 ( 0.000872 0.000841 0.005 )	// 350
	 ( 0.000841 0.000841 0.005 )	// 351
	 ( 0.000872 0.000625 0.0 )	// 352
	 ( 0.001466 0.000625 0.0 )	// 353
	 ( 0.001466 0.000841 0.0 )	// 354
	 ( 0.000872 0.000841 0.0 )	// 355
	 ( 0.000872 0.000625 0.005 )	// 356
	 ( 0.001466 0.000625 0.005 )	// 357
	 ( 0.001466 0.000841 0.005 )	// 358
	 ( 0.000872 0.000841 0.005 )	// 359
	 ( 0.001466 0.000625 0.0 )	// 360
	 ( 0.00206 0.000625 0.0 )	// 361
	 ( 0.00206 0.000841 0.0 )	// 362
	 ( 0.001466 0.000841 0.0 )	// 363
	 ( 0.001466 0.000625 0.005 )	// 364
	 ( 0.00206 0.000625 0.005 )	// 365
	 ( 0.00206 0.000841 0.005 )	// 366
	 ( 0.001466 0.000841 0.005 )	// 367
	 ( 0.00206 0.000625 0.0 )	// 368
	 ( 0.002091 0.000625 0.0 )	// 369
	 ( 0.002091 0.000841 0.0 )	// 370
	 ( 0.00206 0.000841 0.0 )	// 371
	 ( 0.00206 0.000625 0.005 )	// 372
	 ( 0.002091 0.000625 0.005 )	// 373
	 ( 0.002091 0.000841 0.005 )	// 374
	 ( 0.00206 0.000841 0.005 )	// 375
	 ( 0.002091 0.000625 0.0 )	// 376
	 ( 0.002307 0.000625 0.0 )	// 377
	 ( 0.002307 0.000841 0.0 )	// 378
	 ( 0.002091 0.000841 0.0 )	// 379
	 ( 0.002091 0.000625 0.005 )	// 380
	 ( 0.002307 0.000625 0.005 )	// 381
	 ( 0.002307 0.000841 0.005 )	// 382
	 ( 0.002091 0.000841 0.005 )	// 383
	 ( 0.002307 0.000625 0.0 )	// 384
	 ( 0.002338 0.000625 0.0 )	// 385
	 ( 0.002338 0.000841 0.0 )	// 386
	 ( 0.002307 0.000841 0.0 )	// 387
	 ( 0.002307 0.000625 0.005 )	// 388
	 ( 0.002338 0.000625 0.005 )	// 389
	 ( 0.002338 0.000841 0.005 )	// 390
	 ( 0.002307 0.000841 0.005 )	// 391
	 ( 0.002338 0.000625 0.0 )	// 392
	 ( 0.002932 0.000625 0.0 )	// 393
	 ( 0.002932 0.000841 0.0 )	// 394
	 ( 0.002338 0.000841 0.0 )	// 395
	 ( 0.002338 0.000625 0.005 )	// 396
	 ( 0.002932 0.000625 0.005 )	// 397
	 ( 0.002932 0.000841 0.005 )	// 398
	 ( 0.002338 0.000841 0.005 )	// 399
	 ( 0.002932 0.000625 0.0 )	// 400
	 ( 0.003526 0.000625 0.0 )	// 401
	 ( 0.003526 0.000841 0.0 )	// 402
	 ( 0.002932 0.000841 0.0 )	// 403
	 ( 0.002932 0.000625 0.005 )	// 404
	 ( 0.003526 0.000625 0.005 )	// 405
	 ( 0.003526 0.000841 0.005 )	// 406
	 ( 0.002932 0.000841 0.005 )	// 407
	 ( 0.003526 0.000625 0.0 )	// 408
	 ( 0.003557 0.000625 0.0 )	// 409
	 ( 0.003557 0.000841 0.0 )	// 410
	 ( 0.003526 0.000841 0.0 )	// 411
	 ( 0.003526 0.000625 0.005 )	// 412
	 ( 0.003557 0.000625 0.005 )	// 413
	 ( 0.003557 0.000841 0.005 )	// 414
	 ( 0.003526 0.000841 0.005 )	// 415
	 ( 0.003557 0.000625 0.0 )	// 416
	 ( 0.003773 0.000625 0.0 )	// 417
	 ( 0.003773 0.000841 0.0 )	// 418
	 ( 0.003557 0.000841 0.0 )	// 419
	 ( 0.003557 0.000625 0.005 )	// 420
	 ( 0.003773 0.000625 0.005 )	// 421
	 ( 0.003773 0.000841 0.005 )	// 422
	 ( 0.003557 0.000841 0.005 )	// 423
	 ( 0.003773 0.000625 0.0 )	// 424
	 ( 0.003804 0.000625 0.0 )	// 425
	 ( 0.003804 0.000841 0.0 )	// 426
	 ( 0.003773 0.000841 0.0 )	// 427
	 ( 0.003773 0.000625 0.005 )	// 428
	 ( 0.003804 0.000625 0.005 )	// 429
	 ( 0.003804 0.000841 0.005 )	// 430
	 ( 0.003773 0.000841 0.005 )	// 431
	 ( 0.003804 0.000625 0.0 )	// 432
	 ( 0.004398 0.000625 0.0 )	// 433
	 ( 0.004398 0.000841 0.0 )	// 434
	 ( 0.003804 0.000841 0.0 )	// 435
	 ( 0.003804 0.000625 0.005 )	// 436
	 ( 0.004398 0.000625 0.005 )	// 437
	 ( 0.004398 0.000841 0.005 )	// 438
	 ( 0.003804 0.000841 0.005 )	// 439
	 ( 0.004398 0.000625 0.0 )	// 440
	 ( 0.004992 0.000625 0.0 )	// 441
	 ( 0.004992 0.000841 0.0 )	// 442
	 ( 0.004398 0.000841 0.0 )	// 443
	 ( 0.004398 0.000625 0.005 )	// 444
	 ( 0.004992 0.000625 0.005 )	// 445
	 ( 0.004992 0.000841 0.005 )	// 446
	 ( 0.004398 0.000841 0.005 )	// 447
	 ( 0.004992 0.000625 0.0 )	// 448
	 ( 0.005023 0.000625 0.0 )	// 449
	 ( 0.005023 0.000841 0.0 )	// 450
	 ( 0.004992 0.000841 0.0 )	// 451
	 ( 0.004992 0.000625 0.005 )	// 452
	 ( 0.005023 0.000625 0.005 )	// 453
	 ( 0.005023 0.000841 0.005 )	// 454
	 ( 0.004992 0.000841 0.005 )	// 455
	 ( 0.005023 0.000625 0.0 )	// 456
	 ( 0.005239 0.000625 0.0 )	// 457
	 ( 0.005239 0.000841 0.0 )	// 458
	 ( 0.005023 0.000841 0.0 )	// 459
	 ( 0.005023 0.000625 0.005 )	// 460
	 ( 0.005239 0.000625 0.005 )	// 461
	 ( 0.005239 0.000841 0.005 )	// 462
	 ( 0.005023 0.000841 0.005 )	// 463
	 ( 0.005239 0.000625 0.0 )	// 464
	 ( 0.00527 0.000625 0.0 )	// 465
	 ( 0.00527 0.000841 0.0 )	// 466
	 ( 0.005239 0.000841 0.0 )	// 467
	 ( 0.005239 0.000625 0.005 )	// 468
	 ( 0.00527 0.000625 0.005 )	// 469
	 ( 0.00527 0.000841 0.005 )	// 470
	 ( 0.005239 0.000841 0.005 )	// 471
	 ( 0.00527 0.000625 0.0 )	// 472
	 ( 0.005864 0.000625 0.0 )	// 473
	 ( 0.005864 0.000841 0.0 )	// 474
	 ( 0.00527 0.000841 0.0 )	// 475
	 ( 0.00527 0.000625 0.005 )	// 476
	 ( 0.005864 0.000625 0.005 )	// 477
	 ( 0.005864 0.000841 0.005 )	// 478
	 ( 0.00527 0.000841 0.005 )	// 479
	 ( 0.0 0.000841 0.0 )	// 480
	 ( 0.000594 0.000841 0.0 )	// 481
	 ( 0.000594 0.000872 0.0 )	// 482
	 ( 0.0 0.000872 0.0 )	// 483
	 ( 0.0 0.000841 0.005 )	// 484
	 ( 0.000594 0.000841 0.005 )	// 485
	 ( 0.000594 0.000872 0.005 )	// 486
	 ( 0.0 0.000872 0.005 )	// 487
	 ( 0.000594 0.000841 0.0 )	// 488
	 ( 0.000625 0.000841 0.0 )	// 489
	 ( 0.000625 0.000872 0.0 )	// 490
	 ( 0.000594 0.000872 0.0 )	// 491
	 ( 0.000594 0.000841 0.005 )	// 492
	 ( 0.000625 0.000841 0.005 )	// 493
	 ( 0.000625 0.000872 0.005 )	// 494
	 ( 0.000594 0.000872 0.005 )	// 495
	 ( 0.000625 0.000841 0.0 )	// 496
	 ( 0.000841 0.000841 0.0 )	// 497
	 ( 0.000841 0.000872 0.0 )	// 498
	 ( 0.000625 0.000872 0.0 )	// 499
	 ( 0.000625 0.000841 0.005 )	// 500
	 ( 0.000841 0.000841 0.005 )	// 501
	 ( 0.000841 0.000872 0.005 )	// 502
	 ( 0.000625 0.000872 0.005 )	// 503
	 ( 0.000841 0.000841 0.0 )	// 504
	 ( 0.000872 0.000841 0.0 )	// 505
	 ( 0.000872 0.000872 0.0 )	// 506
	 ( 0.000841 0.000872 0.0 )	// 507
	 ( 0.000841 0.000841 0.005 )	// 508
	 ( 0.000872 0.000841 0.005 )	// 509
	 ( 0.000872 0.000872 0.005 )	// 510
	 ( 0.000841 0.000872 0.005 )	// 511
	 ( 0.000872 0.000841 0.0 )	// 512
	 ( 0.001466 0.000841 0.0 )	// 513
	 ( 0.001466 0.000872 0.0 )	// 514
	 ( 0.000872 0.000872 0.0 )	// 515
	 ( 0.000872 0.000841 0.005 )	// 516
	 ( 0.001466 0.000841 0.005 )	// 517
	 ( 0.001466 0.000872 0.005 )	// 518
	 ( 0.000872 0.000872 0.005 )	// 519
	 ( 0.001466 0.000841 0.0 )	// 520
	 ( 0.00206 0.000841 0.0 )	// 521
	 ( 0.00206 0.000872 0.0 )	// 522
	 ( 0.001466 0.000872 0.0 )	// 523
	 ( 0.001466 0.000841 0.005 )	// 524
	 ( 0.00206 0.000841 0.005 )	// 525
	 ( 0.00206 0.000872 0.005 )	// 526
	 ( 0.001466 0.000872 0.005 )	// 527
	 ( 0.00206 0.000841 0.0 )	// 528
	 ( 0.002091 0.000841 0.0 )	// 529
	 ( 0.002091 0.000872 0.0 )	// 530
	 ( 0.00206 0.000872 0.0 )	// 531
	 ( 0.00206 0.000841 0.005 )	// 532
	 ( 0.002091 0.000841 0.005 )	// 533
	 ( 0.002091 0.000872 0.005 )	// 534
	 ( 0.00206 0.000872 0.005 )	// 535
	 ( 0.002091 0.000841 0.0 )	// 536
	 ( 0.002307 0.000841 0.0 )	// 537
	 ( 0.002307 0.000872 0.0 )	// 538
	 ( 0.002091 0.000872 0.0 )	// 539
	 ( 0.002091 0.000841 0.005 )	// 540
	 ( 0.002307 0.000841 0.005 )	// 541
	 ( 0.002307 0.000872 0.005 )	// 542
	 ( 0.002091 0.000872 0.005 )	// 543
	 ( 0.002307 0.000841 0.0 )	// 544
	 ( 0.002338 0.000841 0.0 )	// 545
	 ( 0.002338 0.000872 0.0 )	// 546
	 ( 0.002307 0.000872 0.0 )	// 547
	 ( 0.002307 0.000841 0.005 )	// 548
	 ( 0.002338 0.000841 0.005 )	// 549
	 ( 0.002338 0.000872 0.005 )	// 550
	 ( 0.002307 0.000872 0.005 )	// 551
	 ( 0.002338 0.000841 0.0 )	// 552
	 ( 0.002932 0.000841 0.0 )	// 553
	 ( 0.002932 0.000872 0.0 )	// 554
	 ( 0.002338 0.000872 0.0 )	// 555
	 ( 0.002338 0.000841 0.005 )	// 556
	 ( 0.002932 0.000841 0.005 )	// 557
	 ( 0.002932 0.000872 0.005 )	// 558
	 ( 0.002338 0.000872 0.005 )	// 559
	 ( 0.002932 0.000841 0.0 )	// 560
	 ( 0.003526 0.000841 0.0 )	// 561
	 ( 0.003526 0.000872 0.0 )	// 562
	 ( 0.002932 0.000872 0.0 )	// 563
	 ( 0.002932 0.000841 0.005 )	// 564
	 ( 0.003526 0.000841 0.005 )	// 565
	 ( 0.003526 0.000872 0.005 )	// 566
	 ( 0.002932 0.000872 0.005 )	// 567
	 ( 0.003526 0.000841 0.0 )	// 568
	 ( 0.003557 0.000841 0.0 )	// 569
	 ( 0.003557 0.000872 0.0 )	// 570
	 ( 0.003526 0.000872 0.0 )	// 571
	 ( 0.003526 0.000841 0.005 )	// 572
	 ( 0.003557 0.000841 0.005 )	// 573
	 ( 0.003557 0.000872 0.005 )	// 574
	 ( 0.003526 0.000872 0.005 )	// 575
	 ( 0.003557 0.000841 0.0 )	// 576
	 ( 0.003773 0.000841 0.0 )	// 577
	 ( 0.003773 0.000872 0.0 )	// 578
	 ( 0.003557 0.000872 0.0 )	// 579
	 ( 0.003557 0.000841 0.005 )	// 580
	 ( 0.003773 0.000841 0.005 )	// 581
	 ( 0.003773 0.000872 0.005 )	// 582
	 ( 0.003557 0.000872 0.005 )	// 583
	 ( 0.003773 0.000841 0.0 )	// 584
	 ( 0.003804 0.000841 0.0 )	// 585
	 ( 0.003804 0.000872 0.0 )	// 586
	 ( 0.003773 0.000872 0.0 )	// 587
	 ( 0.003773 0.000841 0.005 )	// 588
	 ( 0.003804 0.000841 0.005 )	// 589
	 ( 0.003804 0.000872 0.005 )	// 590
	 ( 0.003773 0.000872 0.005 )	// 591
	 ( 0.003804 0.000841 0.0 )	// 592
	 ( 0.004398 0.000841 0.0 )	// 593
	 ( 0.004398 0.000872 0.0 )	// 594
	 ( 0.003804 0.000872 0.0 )	// 595
	 ( 0.003804 0.000841 0.005 )	// 596
	 ( 0.004398 0.000841 0.005 )	// 597
	 ( 0.004398 0.000872 0.005 )	// 598
	 ( 0.003804 0.000872 0.005 )	// 599
	 ( 0.004398 0.000841 0.0 )	// 600
	 ( 0.004992 0.000841 0.0 )	// 601
	 ( 0.004992 0.000872 0.0 )	// 602
	 ( 0.004398 0.000872 0.0 )	// 603
	 ( 0.004398 0.000841 0.005 )	// 604
	 ( 0.004992 0.000841 0.005 )	// 605
	 ( 0.004992 0.000872 0.005 )	// 606
	 ( 0.004398 0.000872 0.005 )	// 607
	 ( 0.004992 0.000841 0.0 )	// 608
	 ( 0.005023 0.000841 0.0 )	// 609
	 ( 0.005023 0.000872 0.0 )	// 610
	 ( 0.004992 0.000872 0.0 )	// 611
	 ( 0.004992 0.000841 0.005 )	// 612
	 ( 0.005023 0.000841 0.005 )	// 613
	 ( 0.005023 0.000872 0.005 )	// 614
	 ( 0.004992 0.000872 0.005 )	// 615
	 ( 0.005023 0.000841 0.0 )	// 616
	 ( 0.005239 0.000841 0.0 )	// 617
	 ( 0.005239 0.000872 0.0 )	// 618
	 ( 0.005023 0.000872 0.0 )	// 619
	 ( 0.005023 0.000841 0.005 )	// 620
	 ( 0.005239 0.000841 0.005 )	// 621
	 ( 0.005239 0.000872 0.005 )	// 622
	 ( 0.005023 0.000872 0.005 )	// 623
	 ( 0.005239 0.000841 0.0 )	// 624
	 ( 0.00527 0.000841 0.0 )	// 625
	 ( 0.00527 0.000872 0.0 )	// 626
	 ( 0.005239 0.000872 0.0 )	// 627
	 ( 0.005239 0.000841 0.005 )	// 628
	 ( 0.00527 0.000841 0.005 )	// 629
	 ( 0.00527 0.000872 0.005 )	// 630
	 ( 0.005239 0.000872 0.005 )	// 631
	 ( 0.00527 0.000841 0.0 )	// 632
	 ( 0.005864 0.000841 0.0 )	// 633
	 ( 0.005864 0.000872 0.0 )	// 634
	 ( 0.00527 0.000872 0.0 )	// 635
	 ( 0.00527 0.000841 0.005 )	// 636
	 ( 0.005864 0.000841 0.005 )	// 637
	 ( 0.005864 0.000872 0.005 )	// 638
	 ( 0.00527 0.000872 0.005 )	// 639
	 ( 0.0 0.000872 0.0 )	// 640
	 ( 0.000594 0.000872 0.0 )	// 641
	 ( 0.000594 0.001466 0.0 )	// 642
	 ( 0.0 0.001466 0.0 )	// 643
	 ( 0.0 0.000872 0.005 )	// 644
	 ( 0.000594 0.000872 0.005 )	// 645
	 ( 0.000594 0.001466 0.005 )	// 646
	 ( 0.0 0.001466 0.005 )	// 647
	 ( 0.000594 0.000872 0.0 )	// 648
	 ( 0.000625 0.000872 0.0 )	// 649
	 ( 0.000625 0.001466 0.0 )	// 650
	 ( 0.000594 0.001466 0.0 )	// 651
	 ( 0.000594 0.000872 0.005 )	// 652
	 ( 0.000625 0.000872 0.005 )	// 653
	 ( 0.000625 0.001466 0.005 )	// 654
	 ( 0.000594 0.001466 0.005 )	// 655
	 ( 0.000625 0.000872 0.0 )	// 656
	 ( 0.000841 0.000872 0.0 )	// 657
	 ( 0.000841 0.001466 0.0 )	// 658
	 ( 0.000625 0.001466 0.0 )	// 659
	 ( 0.000625 0.000872 0.005 )	// 660
	 ( 0.000841 0.000872 0.005 )	// 661
	 ( 0.000841 0.001466 0.005 )	// 662
	 ( 0.000625 0.001466 0.005 )	// 663
	 ( 0.000841 0.000872 0.0 )	// 664
	 ( 0.000872 0.000872 0.0 )	// 665
	 ( 0.000872 0.001466 0.0 )	// 666
	 ( 0.000841 0.001466 0.0 )	// 667
	 ( 0.000841 0.000872 0.005 )	// 668
	 ( 0.000872 0.000872 0.005 )	// 669
	 ( 0.000872 0.001466 0.005 )	// 670
	 ( 0.000841 0.001466 0.005 )	// 671
	 ( 0.000872 0.000872 0.0 )	// 672
	 ( 0.001466 0.000872 0.0 )	// 673
	 ( 0.001466 0.001466 0.0 )	// 674
	 ( 0.000872 0.001466 0.0 )	// 675
	 ( 0.000872 0.000872 0.005 )	// 676
	 ( 0.001466 0.000872 0.005 )	// 677
	 ( 0.001466 0.001466 0.005 )	// 678
	 ( 0.000872 0.001466 0.005 )	// 679
	 ( 0.001466 0.000872 0.0 )	// 680
	 ( 0.00206 0.000872 0.0 )	// 681
	 ( 0.00206 0.001466 0.0 )	// 682
	 ( 0.001466 0.001466 0.0 )	// 683
	 ( 0.001466 0.000872 0.005 )	// 684
	 ( 0.00206 0.000872 0.005 )	// 685
	 ( 0.00206 0.001466 0.005 )	// 686
	 ( 0.001466 0.001466 0.005 )	// 687
	 ( 0.00206 0.000872 0.0 )	// 688
	 ( 0.002091 0.000872 0.0 )	// 689
	 ( 0.002091 0.001466 0.0 )	// 690
	 ( 0.00206 0.001466 0.0 )	// 691
	 ( 0.00206 0.000872 0.005 )	// 692
	 ( 0.002091 0.000872 0.005 )	// 693
	 ( 0.002091 0.001466 0.005 )	// 694
	 ( 0.00206 0.001466 0.005 )	// 695
	 ( 0.002091 0.000872 0.0 )	// 696
	 ( 0.002307 0.000872 0.0 )	// 697
	 ( 0.002307 0.001466 0.0 )	// 698
	 ( 0.002091 0.001466 0.0 )	// 699
	 ( 0.002091 0.000872 0.005 )	// 700
	 ( 0.002307 0.000872 0.005 )	// 701
	 ( 0.002307 0.001466 0.005 )	// 702
	 ( 0.002091 0.001466 0.005 )	// 703
	 ( 0.002307 0.000872 0.0 )	// 704
	 ( 0.002338 0.000872 0.0 )	// 705
	 ( 0.002338 0.001466 0.0 )	// 706
	 ( 0.002307 0.001466 0.0 )	// 707
	 ( 0.002307 0.000872 0.005 )	// 708
	 ( 0.002338 0.000872 0.005 )	// 709
	 ( 0.002338 0.001466 0.005 )	// 710
	 ( 0.002307 0.001466 0.005 )	// 711
	 ( 0.002338 0.000872 0.0 )	// 712
	 ( 0.002932 0.000872 0.0 )	// 713
	 ( 0.002932 0.001466 0.0 )	// 714
	 ( 0.002338 0.001466 0.0 )	// 715
	 ( 0.002338 0.000872 0.005 )	// 716
	 ( 0.002932 0.000872 0.005 )	// 717
	 ( 0.002932 0.001466 0.005 )	// 718
	 ( 0.002338 0.001466 0.005 )	// 719
	 ( 0.002932 0.000872 0.0 )	// 720
	 ( 0.003526 0.000872 0.0 )	// 721
	 ( 0.003526 0.001466 0.0 )	// 722
	 ( 0.002932 0.001466 0.0 )	// 723
	 ( 0.002932 0.000872 0.005 )	// 724
	 ( 0.003526 0.000872 0.005 )	// 725
	 ( 0.003526 0.001466 0.005 )	// 726
	 ( 0.002932 0.001466 0.005 )	// 727
	 ( 0.003526 0.000872 0.0 )	// 728
	 ( 0.003557 0.000872 0.0 )	// 729
	 ( 0.003557 0.001466 0.0 )	// 730
	 ( 0.003526 0.001466 0.0 )	// 731
	 ( 0.003526 0.000872 0.005 )	// 732
	 ( 0.003557 0.000872 0.005 )	// 733
	 ( 0.003557 0.001466 0.005 )	// 734
	 ( 0.003526 0.001466 0.005 )	// 735
	 ( 0.003557 0.000872 0.0 )	// 736
	 ( 0.003773 0.000872 0.0 )	// 737
	 ( 0.003773 0.001466 0.0 )	// 738
	 ( 0.003557 0.001466 0.0 )	// 739
	 ( 0.003557 0.000872 0.005 )	// 740
	 ( 0.003773 0.000872 0.005 )	// 741
	 ( 0.003773 0.001466 0.005 )	// 742
	 ( 0.003557 0.001466 0.005 )	// 743
	 ( 0.003773 0.000872 0.0 )	// 744
	 ( 0.003804 0.000872 0.0 )	// 745
	 ( 0.003804 0.001466 0.0 )	// 746
	 ( 0.003773 0.001466 0.0 )	// 747
	 ( 0.003773 0.000872 0.005 )	// 748
	 ( 0.003804 0.000872 0.005 )	// 749
	 ( 0.003804 0.001466 0.005 )	// 750
	 ( 0.003773 0.001466 0.005 )	// 751
	 ( 0.003804 0.000872 0.0 )	// 752
	 ( 0.004398 0.000872 0.0 )	// 753
	 ( 0.004398 0.001466 0.0 )	// 754
	 ( 0.003804 0.001466 0.0 )	// 755
	 ( 0.003804 0.000872 0.005 )	// 756
	 ( 0.004398 0.000872 0.005 )	// 757
	 ( 0.004398 0.001466 0.005 )	// 758
	 ( 0.003804 0.001466 0.005 )	// 759
	 ( 0.004398 0.000872 0.0 )	// 760
	 ( 0.004992 0.000872 0.0 )	// 761
	 ( 0.004992 0.001466 0.0 )	// 762
	 ( 0.004398 0.001466 0.0 )	// 763
	 ( 0.004398 0.000872 0.005 )	// 764
	 ( 0.004992 0.000872 0.005 )	// 765
	 ( 0.004992 0.001466 0.005 )	// 766
	 ( 0.004398 0.001466 0.005 )	// 767
	 ( 0.004992 0.000872 0.0 )	// 768
	 ( 0.005023 0.000872 0.0 )	// 769
	 ( 0.005023 0.001466 0.0 )	// 770
	 ( 0.004992 0.001466 0.0 )	// 771
	 ( 0.004992 0.000872 0.005 )	// 772
	 ( 0.005023 0.000872 0.005 )	// 773
	 ( 0.005023 0.001466 0.005 )	// 774
	 ( 0.004992 0.001466 0.005 )	// 775
	 ( 0.005023 0.000872 0.0 )	// 776
	 ( 0.005239 0.000872 0.0 )	// 777
	 ( 0.005239 0.001466 0.0 )	// 778
	 ( 0.005023 0.001466 0.0 )	// 779
	 ( 0.005023 0.000872 0.005 )	// 780
	 ( 0.005239 0.000872 0.005 )	// 781
	 ( 0.005239 0.001466 0.005 )	// 782
	 ( 0.005023 0.001466 0.005 )	// 783
	 ( 0.005239 0.000872 0.0 )	// 784
	 ( 0.00527 0.000872 0.0 )	// 785
	 ( 0.00527 0.001466 0.0 )	// 786
	 ( 0.005239 0.001466 0.0 )	// 787
	 ( 0.005239 0.000872 0.005 )	// 788
	 ( 0.00527 0.000872 0.005 )	// 789
	 ( 0.00527 0.001466 0.005 )	// 790
	 ( 0.005239 0.001466 0.005 )	// 791
	 ( 0.00527 0.000872 0.0 )	// 792
	 ( 0.005864 0.000872 0.0 )	// 793
	 ( 0.005864 0.001466 0.0 )	// 794
	 ( 0.00527 0.001466 0.0 )	// 795
	 ( 0.00527 0.000872 0.005 )	// 796
	 ( 0.005864 0.000872 0.005 )	// 797
	 ( 0.005864 0.001466 0.005 )	// 798
	 ( 0.00527 0.001466 0.005 )	// 799
	 ( 0.0 0.001466 0.0 )	// 800
	 ( 0.000594 0.001466 0.0 )	// 801
	 ( 0.000594 0.00206 0.0 )	// 802
	 ( 0.0 0.00206 0.0 )	// 803
	 ( 0.0 0.001466 0.005 )	// 804
	 ( 0.000594 0.001466 0.005 )	// 805
	 ( 0.000594 0.00206 0.005 )	// 806
	 ( 0.0 0.00206 0.005 )	// 807
	 ( 0.000594 0.001466 0.0 )	// 808
	 ( 0.000625 0.001466 0.0 )	// 809
	 ( 0.000625 0.00206 0.0 )	// 810
	 ( 0.000594 0.00206 0.0 )	// 811
	 ( 0.000594 0.001466 0.005 )	// 812
	 ( 0.000625 0.001466 0.005 )	// 813
	 ( 0.000625 0.00206 0.005 )	// 814
	 ( 0.000594 0.00206 0.005 )	// 815
	 ( 0.000625 0.001466 0.0 )	// 816
	 ( 0.000841 0.001466 0.0 )	// 817
	 ( 0.000841 0.00206 0.0 )	// 818
	 ( 0.000625 0.00206 0.0 )	// 819
	 ( 0.000625 0.001466 0.005 )	// 820
	 ( 0.000841 0.001466 0.005 )	// 821
	 ( 0.000841 0.00206 0.005 )	// 822
	 ( 0.000625 0.00206 0.005 )	// 823
	 ( 0.000841 0.001466 0.0 )	// 824
	 ( 0.000872 0.001466 0.0 )	// 825
	 ( 0.000872 0.00206 0.0 )	// 826
	 ( 0.000841 0.00206 0.0 )	// 827