/*--------------------------------*- C++ -*----------------------------------*\
| =========                 |                                                 |
| \\      /  F ield         | OpenFOAM: The Open Source CFD Toolbox           |
|  \\    /   O peration     | Version:  2.3.1                                 |
|   \\  /    A nd           | Web:      www.OpenFOAM.org                      |
|    \\/     M anipulation  |                                                 |
\*---------------------------------------------------------------------------*/
FoamFile
{
    version     2.0;
    format      ascii;
    class       dictionary;
    location    "system";
    object      fvSolution;
}
// * * * * * * * * * * * * * * * * * * * * * * * * * * * * * * * * * * * * * //

solvers
{
    "(p|Phi)"
    //~ {
        //~ solver          smoothSolver;
        //~ smoother        GaussSeidel;
        //~ // smoother        symGaussSeidel;
        //~ // smoother        DIC;
        //~ // smoother        DICGaussSeidel;
        //~ // smoother        FDIC;
        //~ // nSweeps      2;
        //~ tolerance       1e-08;
        //~ relTol          0.01;
    //~ }
    
    {
        solver          PCG;
        // preconditioner  none;
        // preconditioner  diagonal;
        // preconditioner  DIC;
        // preconditioner  FDIC;
        preconditioner
        {
            preconditioner  GAMG;
            tolerance       1e-06;
            relTol          0.05;
            smoother        symGaussSeidel;
            nPreSweeps      0;
            nPostSweeps     2;
            nFinestSweeps   2;
            cacheAgglomeration true;
            nCellsInCoarsestLevel 5;
            agglomerator    faceAreaPair;
            processorAgglomerator   procFaces;
            nAgglomeratingCells     10;
            mergeLevels             1;
        }
        tolerance       1e-08;
        relTol          0.01;
    }
    
    //~ {
        //~ solver          GAMG;
        //~ tolerance       1e-8;
        //~ relTol          0.01;
        //~ smoother        GaussSeidel;
        //~ nPreSweeps      0;
        //~ nPostSweeps     2;
        //~ nFinestSweeps   2;
        //~ cacheAgglomeration      on;
        //~ nCellsInCoarsestLevel   10;
        //~ agglomerator            faceAreaPair;
        //~ processorAgglomerator   procFaces;
        //~ nAgglomeratingCells     10;
        //~ mergeLevels             1;
        //~ processorAgglomerator   procFaces;
        //~ nAgglomeratingCells     10;
    //~ }

    "(U)"
    
    //~ {
        //~ solver          smoothSolver;
        //~ smoother        GaussSeidel;
        //~ // smoother        DILU;
        //~ // nSweeps         2;
        //~ tolerance       1e-08;
        //~ relTol          0.05;
    //~ }
    
    {
        solver          PBiCGStab;
        // preconditioner  none;
        // preconditioner  diagonal;
        preconditioner  DILU;
        tolerance       1e-10;
        relTol          0.01;
    }
        
    //~ {
        //~ solver          GAMG;
        //~ tolerance       1e-8;
        //~ relTol          0.05;
        //~ smoother        GaussSeidel;
        //~ nPreSweeps      0;
        //~ nPostSweeps     2;
        //~ nFinestSweeps   2;
        //~ cacheAgglomeration      on;
        //~ nCellsInCoarsestLevel   10;
        //~ agglomerator            faceAreaPair;
        //~ processorAgglomerator   procFaces;
        //~ nAgglomeratingCells     10;
        //~ mergeLevels             1;
    //~ }
    "T"
    {
        solver          PBiCGStab;
        // preconditioner  none;
        // preconditioner  diagonal;
        preconditioner  DILU;
        tolerance       1e-08;
        relTol          0.01;
    }
    
    //if the turbulence models are used
    "(h|k|omega|epsilon)"
    {
        solver          GAMG;
        tolerance       1e-8;
        relTol          0.05;
        smoother        GaussSeidel;
        nPreSweeps      0;
        nPostSweeps     2;
        nFinestSweeps   2;
        cacheAgglomeration      on;
        nCellsInCoarsestLevel   10;
        agglomerator            faceAreaPair;
        processorAgglomerator   procFaces;
        nAgglomeratingCells     400;
        mergeLevels             1;
    }
    
    "(CO|O2|CO2|N2O|N2|NO)"
    {
        solver          PBiCGStab;
        preconditioner  DILU;
        tolerance       1e-08;
        relTol          0.01;
    }  

}

// Note: porousSimpleFoam does not solve for U by default

SIMPLE
{
    nUCorrectors 0;                                                     //0 for explicit velocity correction
    nNonOrthogonalCorrectors 2;
    //~ nNonOrthogonalCorrectors 1;
    consistent yes; //I changed this
    
    residualControl
    {
        p           1e-6;
        U           1e-8;
        T           1e-6;
        //~ "(CO|NO|O2|CO2|N2|N2O)"    1e-4;
        "(CO|NO|O2|N2O|CO2)"    1e-6;
    }
}

relaxationFactors
{
    fields
    {
        /*~ p           0.05;
        U           0.1;
        k           0.1;
        omega       0.1;*/
        
        p           0.1;
        U           0.2;
        T           0.3;
        "(CO|O2|CO2)" 	 0.3;
        //~ k           0.05;
        //~ omega       0.05;
//        p           0.1;
 //       U           0.16;
        // h           0.9;
        //~ "(CO|NO|O2|CO2|N2|N2O)" 	 1.0;
    }
    equations
    {
        "(p|U)" 0.95;
        "(T)" 0.95;
        //~ "(CO|NO|O2|CO2|N2|N2O)" 	 1.0;
        "(CO|O2|CO2)" 	 0.95;
    }
}
// ************************************************************************* //
