/*--------------------------------*- C++ -*----------------------------------*\ 
| ========                 |                                                 | 
| \      /  F ield         | OpenFOAM: The Open Source CFD Toolbox           | 
|  \    /   O peration     | Version:  4.1                                   | 
|   \  /    A nd           | Web:      www.OpenFOAM.org                      | 
|    \/     M anipulation  |                                                 | 
\*---------------------------------------------------------------------------*/ 
FoamFile 
{ 
 	 version 	 2.0; 
 	 format 	 ascii; 
 	 class 		 dictionary; 
 	 object 	 blockMeshDict; 
} 
// * * * * * * * * * * * * * * * * * * * * * * * * * * * * * * * * * * * * * // 

convertToMeters 	1; 

vertices 
( 
	 ( 0.0 0.0 0.0 )	// 000
	 ( 0.0005493550000000001 0.0 0.0 )	// 001
	 ( 0.0005493550000000001 0.000576666 0.0 )	// 002
	 ( 0.0 0.000576666 0.0 )	// 003
	 ( 0.0 0.0 0.003 )	// 004
	 ( 0.0005493550000000001 0.0 0.003 )	// 005
	 ( 0.0005493550000000001 0.000576666 0.003 )	// 006
	 ( 0.0 0.000576666 0.003 )	// 007
	 ( 0.0005493550000000001 0.0 0.0 )	// 008
	 ( 0.0006250000000000001 0.0 0.0 )	// 009
	 ( 0.0006250000000000001 0.000576666 0.0 )	// 010
	 ( 0.0005493550000000001 0.000576666 0.0 )	// 011
	 ( 0.0005493550000000001 0.0 0.003 )	// 012
	 ( 0.0006250000000000001 0.0 0.003 )	// 013
	 ( 0.0006250000000000001 0.000576666 0.003 )	// 014
	 ( 0.0005493550000000001 0.000576666 0.003 )	// 015
	 ( 0.0006250000000000001 0.0 0.0 )	// 016
	 ( 0.0008410000000000002 0.0 0.0 )	// 017
	 ( 0.0008410000000000002 0.000576666 0.0 )	// 018
	 ( 0.0006250000000000001 0.000576666 0.0 )	// 019
	 ( 0.0006250000000000001 0.0 0.003 )	// 020
	 ( 0.0008410000000000002 0.0 0.003 )	// 021
	 ( 0.0008410000000000002 0.000576666 0.003 )	// 022
	 ( 0.0006250000000000001 0.000576666 0.003 )	// 023
	 ( 0.0008410000000000002 0.0 0.0 )	// 024
	 ( 0.0008497790000000003 0.0 0.0 )	// 025
	 ( 0.0009166450000000002 0.000576666 0.0 )	// 026
	 ( 0.0008410000000000002 0.000576666 0.0 )	// 027
	 ( 0.0008410000000000002 0.0 0.003 )	// 028
	 ( 0.0008497790000000003 0.0 0.003 )	// 029
	 ( 0.0009166450000000002 0.000576666 0.003 )	// 030
	 ( 0.0008410000000000002 0.000576666 0.003 )	// 031
	 ( 0.0008497790000000003 0.0 0.0 )	// 032
	 ( 0.0014660000000000003 0.0 0.0 )	// 033
	 ( 0.0014660000000000003 0.0006190459999999999 0.0 )	// 034
	 ( 0.0009166450000000002 0.000576666 0.0 )	// 035
	 ( 0.0008497790000000003 0.0 0.003 )	// 036
	 ( 0.0014660000000000003 0.0 0.003 )	// 037
	 ( 0.0014660000000000003 0.0006190459999999999 0.003 )	// 038
	 ( 0.0009166450000000002 0.000576666 0.003 )	// 039
	 ( 0.0 0.000576666 0.0 )	// 040
	 ( 0.0005493550000000001 0.000576666 0.0 )	// 041
	 ( 0.0005493550000000001 0.000625 0.0 )	// 042
	 ( 0.0 0.000625 0.0 )	// 043
	 ( 0.0 0.000576666 0.003 )	// 044
	 ( 0.0005493550000000001 0.000576666 0.003 )	// 045
	 ( 0.0005493550000000001 0.000625 0.003 )	// 046
	 ( 0.0 0.000625 0.003 )	// 047
	 ( 0.0005493550000000001 0.000576666 0.0 )	// 048
	 ( 0.0006250000000000001 0.000576666 0.0 )	// 049
	 ( 0.0006250000000000001 0.000625 0.0 )	// 050
	 ( 0.0005493550000000001 0.000625 0.0 )	// 051
	 ( 0.0005493550000000001 0.000576666 0.003 )	// 052
	 ( 0.0006250000000000001 0.000576666 0.003 )	// 053
	 ( 0.0006250000000000001 0.000625 0.003 )	// 054
	 ( 0.0005493550000000001 0.000625 0.003 )	// 055
	 ( 0.0006250000000000001 0.000576666 0.0 )	// 056
	 ( 0.0008410000000000002 0.000576666 0.0 )	// 057
	 ( 0.0008410000000000002 0.000625 0.0 )	// 058
	 ( 0.0006250000000000001 0.000625 0.0 )	// 059
	 ( 0.0006250000000000001 0.000576666 0.003 )	// 060
	 ( 0.0008410000000000002 0.000576666 0.003 )	// 061
	 ( 0.0008410000000000002 0.000625 0.003 )	// 062
	 ( 0.0006250000000000001 0.000625 0.003 )	// 063
	 ( 0.0008410000000000002 0.000576666 0.0 )	// 064
	 ( 0.0009166450000000002 0.000576666 0.0 )	// 065
	 ( 0.0009166450000000002 0.000625 0.0 )	// 066
	 ( 0.0008410000000000002 0.000625 0.0 )	// 067
	 ( 0.0008410000000000002 0.000576666 0.003 )	// 068
	 ( 0.0009166450000000002 0.000576666 0.003 )	// 069
	 ( 0.0009166450000000002 0.000625 0.003 )	// 070
	 ( 0.0008410000000000002 0.000625 0.003 )	// 071
	 ( 0.0009166450000000002 0.000576666 0.0 )	// 072
	 ( 0.0014660000000000003 0.0006190459999999999 0.0 )	// 073
	 ( 0.0014660000000000003 0.000625 0.0 )	// 074
	 ( 0.0009166450000000002 0.000625 0.0 )	// 075
	 ( 0.0009166450000000002 0.000576666 0.003 )	// 076
	 ( 0.0014660000000000003 0.0006190459999999999 0.003 )	// 077
	 ( 0.0014660000000000003 0.000625 0.003 )	// 078
	 ( 0.0009166450000000002 0.000625 0.003 )	// 079
	 ( 0.0 0.000625 0.0 )	// 080
	 ( 0.0005493550000000001 0.000625 0.0 )	// 081
	 ( 0.0005493550000000001 0.000841 0.0 )	// 082
	 ( 0.0 0.000841 0.0 )	// 083
	 ( 0.0 0.000625 0.003 )	// 084
	 ( 0.0005493550000000001 0.000625 0.003 )	// 085
	 ( 0.0005493550000000001 0.000841 0.003 )	// 086
	 ( 0.0 0.000841 0.003 )	// 087
	 ( 0.0005493550000000001 0.000625 0.0 )	// 088
	 ( 0.0006250000000000001 0.000625 0.0 )	// 089
	 ( 0.0006250000000000001 0.000841 0.0 )	// 090
	 ( 0.0005493550000000001 0.000841 0.0 )	// 091
	 ( 0.0005493550000000001 0.000625 0.003 )	// 092
	 ( 0.0006250000000000001 0.000625 0.003 )	// 093
	 ( 0.0006250000000000001 0.000841 0.003 )	// 094
	 ( 0.0005493550000000001 0.000841 0.003 )	// 095
	 ( 0.0006250000000000001 0.000625 0.0 )	// 096
	 ( 0.0008410000000000002 0.000625 0.0 )	// 097
	 ( 0.0008410000000000002 0.000841 0.0 )	// 098
	 ( 0.0006250000000000001 0.000841 0.0 )	// 099
	 ( 0.0006250000000000001 0.000625 0.003 )	// 100
	 ( 0.0008410000000000002 0.000625 0.003 )	// 101
	 ( 0.0008410000000000002 0.000841 0.003 )	// 102
	 ( 0.0006250000000000001 0.000841 0.003 )	// 103
	 ( 0.0008410000000000002 0.000625 0.0 )	// 104
	 ( 0.0009166450000000002 0.000625 0.0 )	// 105
	 ( 0.0009166450000000002 0.000841 0.0 )	// 106
	 ( 0.0008410000000000002 0.000841 0.0 )	// 107
	 ( 0.0008410000000000002 0.000625 0.003 )	// 108
	 ( 0.0009166450000000002 0.000625 0.003 )	// 109
	 ( 0.0009166450000000002 0.000841 0.003 )	// 110
	 ( 0.0008410000000000002 0.000841 0.003 )	// 111
	 ( 0.0009166450000000002 0.000625 0.0 )	// 112
	 ( 0.0014660000000000003 0.000625 0.0 )	// 113
	 ( 0.0014660000000000003 0.000841 0.0 )	// 114
	 ( 0.0009166450000000002 0.000841 0.0 )	// 115
	 ( 0.0009166450000000002 0.000625 0.003 )	// 116
	 ( 0.0014660000000000003 0.000625 0.003 )	// 117
	 ( 0.0014660000000000003 0.000841 0.003 )	// 118
	 ( 0.0009166450000000002 0.000841 0.003 )	// 119
	 ( 0.0 0.000841 0.0 )	// 120
	 ( 0.0005493550000000001 0.000841 0.0 )	// 121
	 ( 0.0005493550000000001 0.000889334 0.0 )	// 122
	 ( 0.0 0.000846954 0.0 )	// 123
	 ( 0.0 0.000841 0.003 )	// 124
	 ( 0.0005493550000000001 0.000841 0.003 )	// 125
	 ( 0.0005493550000000001 0.000889334 0.003 )	// 126
	 ( 0.0 0.000846954 0.003 )	// 127
	 ( 0.0005493550000000001 0.000841 0.0 )	// 128
	 ( 0.0006250000000000001 0.000841 0.0 )	// 129
	 ( 0.0006250000000000001 0.000889334 0.0 )	// 130
	 ( 0.0005493550000000001 0.000889334 0.0 )	// 131
	 ( 0.0005493550000000001 0.000841 0.003 )	// 132
	 ( 0.0006250000000000001 0.000841 0.003 )	// 133
	 ( 0.0006250000000000001 0.000889334 0.003 )	// 134
	 ( 0.0005493550000000001 0.000889334 0.003 )	// 135
	 ( 0.0006250000000000001 0.000841 0.0 )	// 136
	 ( 0.0008410000000000002 0.000841 0.0 )	// 137
	 ( 0.0008410000000000002 0.000889334 0.0 )	// 138
	 ( 0.0006250000000000001 0.000889334 0.0 )	// 139
	 ( 0.0006250000000000001 0.000841 0.003 )	// 140
	 ( 0.0008410000000000002 0.000841 0.003 )	// 141
	 ( 0.0008410000000000002 0.000889334 0.003 )	// 142
	 ( 0.0006250000000000001 0.000889334 0.003 )	// 143
	 ( 0.0008410000000000002 0.000841 0.0 )	// 144
	 ( 0.0009166450000000002 0.000841 0.0 )	// 145
	 ( 0.0009166450000000002 0.000889334 0.0 )	// 146
	 ( 0.0008410000000000002 0.000889334 0.0 )	// 147
	 ( 0.0008410000000000002 0.000841 0.003 )	// 148
	 ( 0.0009166450000000002 0.000841 0.003 )	// 149
	 ( 0.0009166450000000002 0.000889334 0.003 )	// 150
	 ( 0.0008410000000000002 0.000889334 0.003 )	// 151
	 ( 0.0009166450000000002 0.000841 0.0 )	// 152
	 ( 0.0014660000000000003 0.000841 0.0 )	// 153
	 ( 0.0014660000000000003 0.000889334 0.0 )	// 154
	 ( 0.0009166450000000002 0.000889334 0.0 )	// 155
	 ( 0.0009166450000000002 0.000841 0.003 )	// 156
	 ( 0.0014660000000000003 0.000841 0.003 )	// 157
	 ( 0.0014660000000000003 0.000889334 0.003 )	// 158
	 ( 0.0009166450000000002 0.000889334 0.003 )	// 159
	 ( 0.0 0.000846954 0.0 )	// 160
	 ( 0.0005493550000000001 0.000889334 0.0 )	// 161
	 ( 0.000616221 0.0014659999999999999 0.0 )	// 162
	 ( 0.0 0.0014659999999999999 0.0 )	// 163
	 ( 0.0 0.000846954 0.003 )	// 164
	 ( 0.0005493550000000001 0.000889334 0.003 )	// 165
	 ( 0.000616221 0.0014659999999999999 0.003 )	// 166
	 ( 0.0 0.0014659999999999999 0.003 )	// 167
	 ( 0.0005493550000000001 0.000889334 0.0 )	// 168
	 ( 0.0006250000000000001 0.000889334 0.0 )	// 169
	 ( 0.0006250000000000001 0.0014659999999999999 0.0 )	// 170
	 ( 0.000616221 0.0014659999999999999 0.0 )	// 171
	 ( 0.0005493550000000001 0.000889334 0.003 )	// 172
	 ( 0.0006250000000000001 0.000889334 0.003 )	// 173
	 ( 0.0006250000000000001 0.0014659999999999999 0.003 )	// 174
	 ( 0.000616221 0.0014659999999999999 0.003 )	// 175
	 ( 0.0006250000000000001 0.000889334 0.0 )	// 176
	 ( 0.0008410000000000002 0.000889334 0.0 )	// 177
	 ( 0.0008410000000000002 0.0014659999999999999 0.0 )	// 178
	 ( 0.0006250000000000001 0.0014659999999999999 0.0 )	// 179
	 ( 0.0006250000000000001 0.000889334 0.003 )	// 180
	 ( 0.0008410000000000002 0.000889334 0.003 )	// 181
	 ( 0.0008410000000000002 0.0014659999999999999 0.003 )	// 182
	 ( 0.0006250000000000001 0.0014659999999999999 0.003 )	// 183
	 ( 0.0008410000000000002 0.000889334 0.0 )	// 184
	 ( 0.0009166450000000002 0.000889334 0.0 )	// 185
	 ( 0.0009166450000000002 0.0014659999999999999 0.0 )	// 186
	 ( 0.0008410000000000002 0.0014659999999999999 0.0 )	// 187
	 ( 0.0008410000000000002 0.000889334 0.003 )	// 188
	 ( 0.0009166450000000002 0.000889334 0.003 )	// 189
	 ( 0.0009166450000000002 0.0014659999999999999 0.003 )	// 190
	 ( 0.0008410000000000002 0.0014659999999999999 0.003 )	// 191
	 ( 0.0009166450000000002 0.000889334 0.0 )	// 192
	 ( 0.0014660000000000003 0.000889334 0.0 )	// 193
	 ( 0.0014660000000000003 0.0014659999999999999 0.0 )	// 194
	 ( 0.0009166450000000002 0.0014659999999999999 0.0 )	// 195
	 ( 0.0009166450000000002 0.000889334 0.003 )	// 196
	 ( 0.0014660000000000003 0.000889334 0.003 )	// 197
	 ( 0.0014660000000000003 0.0014659999999999999 0.003 )	// 198
	 ( 0.0009166450000000002 0.0014659999999999999 0.003 )	// 199
	 ( 0.0006250000000000001 0.0 0.003 )	// 200
	 ( 0.0008410000000000002 0.0 0.003 )	// 201
	 ( 0.0008410000000000002 0.000576666 0.003 )	// 202
	 ( 0.0006250000000000001 0.000576666 0.003 )	// 203
	 ( 0.0006250000000000001 0.0 0.006 )	// 204
	 ( 0.0008410000000000002 0.0 0.006 )	// 205
	 ( 0.0008410000000000002 0.000576666 0.006 )	// 206
	 ( 0.0006250000000000001 0.000576666 0.006 )	// 207
	 ( 0.0008410000000000002 0.0 0.003 )	// 208
	 ( 0.0008497790000000003 0.0 0.003 )	// 209
	 ( 0.0009166450000000002 0.000576666 0.003 )	// 210
	 ( 0.0008410000000000002 0.000576666 0.003 )	// 211
	 ( 0.0008410000000000002 0.0 0.006 )	// 212
	 ( 0.0008497790000000003 0.0 0.006 )	// 213
	 ( 0.0009166450000000002 0.000576666 0.006 )	// 214
	 ( 0.0008410000000000002 0.000576666 0.006 )	// 215
	 ( 0.0008497790000000003 0.0 0.003 )	// 216
	 ( 0.0014660000000000003 0.0 0.003 )	// 217
	 ( 0.0014660000000000003 0.0006190459999999999 0.003 )	// 218
	 ( 0.0009166450000000002 0.000576666 0.003 )	// 219
	 ( 0.0008497790000000003 0.0 0.006 )	// 220
	 ( 0.0014660000000000003 0.0 0.006 )	// 221
	 ( 0.0014660000000000003 0.0006190459999999999 0.006 )	// 222
	 ( 0.0009166450000000002 0.000576666 0.006 )	// 223
	 ( 0.0006250000000000001 0.000576666 0.003 )	// 224
	 ( 0.0008410000000000002 0.000576666 0.003 )	// 225
	 ( 0.0008410000000000002 0.000625 0.003 )	// 226
	 ( 0.0006250000000000001 0.000625 0.003 )	// 227
	 ( 0.0006250000000000001 0.000576666 0.006 )	// 228
	 ( 0.0008410000000000002 0.000576666 0.006 )	// 229
	 ( 0.0008410000000000002 0.000625 0.006 )	// 230
	 ( 0.0006250000000000001 0.000625 0.006 )	// 231
	 ( 0.0008410000000000002 0.000576666 0.003 )	// 232
	 ( 0.0009166450000000002 0.000576666 0.003 )	// 233
	 ( 0.0009166450000000002 0.000625 0.003 )	// 234
	 ( 0.0008410000000000002 0.000625 0.003 )	// 235
	 ( 0.0008410000000000002 0.000576666 0.006 )	// 236
	 ( 0.0009166450000000002 0.000576666 0.006 )	// 237
	 ( 0.0009166450000000002 0.000625 0.006 )	// 238
	 ( 0.0008410000000000002 0.000625 0.006 )	// 239
	 ( 0.0009166450000000002 0.000576666 0.003 )	// 240
	 ( 0.0014660000000000003 0.0006190459999999999 0.003 )	// 241
	 ( 0.0014660000000000003 0.000625 0.003 )	// 242
	 ( 0.0009166450000000002 0.000625 0.003 )	// 243
	 ( 0.0009166450000000002 0.000576666 0.006 )	// 244
	 ( 0.0014660000000000003 0.0006190459999999999 0.006 )	// 245
	 ( 0.0014660000000000003 0.000625 0.006 )	// 246
	 ( 0.0009166450000000002 0.000625 0.006 )	// 247
	 ( 0.0 0.000625 0.003 )	// 248
	 ( 0.0005493550000000001 0.000625 0.003 )	// 249
	 ( 0.0005493550000000001 0.000841 0.003 )	// 250
	 ( 0.0 0.000841 0.003 )	// 251
	 ( 0.0 0.000625 0.006 )	// 252
	 ( 0.0005493550000000001 0.000625 0.006 )	// 253
	 ( 0.0005493550000000001 0.000841 0.006 )	// 254
	 ( 0.0 0.000841 0.006 )	// 255
	 ( 0.0005493550000000001 0.000625 0.003 )	// 256
	 ( 0.0006250000000000001 0.000625 0.003 )	// 257
	 ( 0.0006250000000000001 0.000841 0.003 )	// 258
	 ( 0.0005493550000000001 0.000841 0.003 )	// 259
	 ( 0.0005493550000000001 0.000625 0.006 )	// 260
	 ( 0.0006250000000000001 0.000625 0.006 )	// 261
	 ( 0.0006250000000000001 0.000841 0.006 )	// 262
	 ( 0.0005493550000000001 0.000841 0.006 )	// 263
	 ( 0.0006250000000000001 0.000625 0.003 )	// 264
	 ( 0.0008410000000000002 0.000625 0.003 )	// 265
	 ( 0.0008410000000000002 0.000841 0.003 )	// 266
	 ( 0.0006250000000000001 0.000841 0.003 )	// 267
	 ( 0.0006250000000000001 0.000625 0.006 )	// 268
	 ( 0.0008410000000000002 0.000625 0.006 )	// 269
	 ( 0.0008410000000000002 0.000841 0.006 )	// 270
	 ( 0.0006250000000000001 0.000841 0.006 )	// 271
	 ( 0.0008410000000000002 0.000625 0.003 )	// 272
	 ( 0.0009166450000000002 0.000625 0.003 )	// 273
	 ( 0.0009166450000000002 0.000841 0.003 )	// 274
	 ( 0.0008410000000000002 0.000841 0.003 )	// 275
	 ( 0.0008410000000000002 0.000625 0.006 )	// 276
	 ( 0.0009166450000000002 0.000625 0.006 )	// 277
	 ( 0.0009166450000000002 0.000841 0.006 )	// 278
	 ( 0.0008410000000000002 0.000841 0.006 )	// 279
	 ( 0.0009166450000000002 0.000625 0.003 )	// 280
	 ( 0.0014660000000000003 0.000625 0.003 )	// 281
	 ( 0.0014660000000000003 0.000841 0.003 )	// 282
	 ( 0.0009166450000000002 0.000841 0.003 )	// 283
	 ( 0.0009166450000000002 0.000625 0.006 )	// 284
	 ( 0.0014660000000000003 0.000625 0.006 )	// 285
	 ( 0.0014660000000000003 0.000841 0.006 )	// 286
	 ( 0.0009166450000000002 0.000841 0.006 )	// 287
	 ( 0.0 0.000841 0.003 )	// 288
	 ( 0.0005493550000000001 0.000841 0.003 )	// 289
	 ( 0.0005493550000000001 0.000889334 0.003 )	// 290
	 ( 0.0 0.000846954 0.003 )	// 291
	 ( 0.0 0.000841 0.006 )	// 292
	 ( 0.0005493550000000001 0.000841 0.006 )	// 293
	 ( 0.0005493550000000001 0.000889334 0.006 )	// 294
	 ( 0.0 0.000846954 0.006 )	// 295
	 ( 0.0005493550000000001 0.000841 0.003 )	// 296
	 ( 0.0006250000000000001 0.000841 0.003 )	// 297
	 ( 0.0006250000000000001 0.000889334 0.003 )	// 298
	 ( 0.0005493550000000001 0.000889334 0.003 )	// 299
	 ( 0.0005493550000000001 0.000841 0.006 )	// 300
	 ( 0.0006250000000000001 0.000841 0.006 )	// 301
	 ( 0.0006250000000000001 0.000889334 0.006 )	// 302
	 ( 0.0005493550000000001 0.000889334 0.006 )	// 303
	 ( 0.0006250000000000001 0.000841 0.003 )	// 304
	 ( 0.0008410000000000002 0.000841 0.003 )	// 305
	 ( 0.0008410000000000002 0.000889334 0.003 )	// 306
	 ( 0.0006250000000000001 0.000889334 0.003 )	// 307
	 ( 0.0006250000000000001 0.000841 0.006 )	// 308
	 ( 0.0008410000000000002 0.000841 0.006 )	// 309
	 ( 0.0008410000000000002 0.000889334 0.006 )	// 310
	 ( 0.0006250000000000001 0.000889334 0.006 )	// 311
	 ( 0.0 0.000846954 0.003 )	// 312
	 ( 0.0005493550000000001 0.000889334 0.003 )	// 313
	 ( 0.000616221 0.0014659999999999999 0.003 )	// 314
	 ( 0.0 0.0014659999999999999 0.003 )	// 315
	 ( 0.0 0.000846954 0.006 )	// 316
	 ( 0.0005493550000000001 0.000889334 0.006 )	// 317
	 ( 0.000616221 0.0014659999999999999 0.006 )	// 318
	 ( 0.0 0.0014659999999999999 0.006 )	// 319
	 ( 0.0005493550000000001 0.000889334 0.003 )	// 320
	 ( 0.0006250000000000001 0.000889334 0.003 )	// 321
	 ( 0.0006250000000000001 0.0014659999999999999 0.003 )	// 322
	 ( 0.000616221 0.0014659999999999999 0.003 )	// 323
	 ( 0.0005493550000000001 0.000889334 0.006 )	// 324
	 ( 0.0006250000000000001 0.000889334 0.006 )	// 325
	 ( 0.0006250000000000001 0.0014659999999999999 0.006 )	// 326
	 ( 0.000616221 0.0014659999999999999 0.006 )	// 327
	 ( 0.0006250000000000001 0.000889334 0.003 )	// 328
	 ( 0.0008410000000000002 0.000889334 0.003 )	// 329
	 ( 0.0008410000000000002 0.0014659999999999999 0.003 )	// 330
	 ( 0.0006250000000000001 0.0014659999999999999 0.003 )	// 331
	 ( 0.0006250000000000001 0.000889334 0.006 )	// 332
	 ( 0.0008410000000000002 0.000889334 0.006 )	// 333
	 ( 0.0008410000000000002 0.0014659999999999999 0.006 )	// 334
	 ( 0.0006250000000000001 0.0014659999999999999 0.006 )	// 335
	 ( 0.0 0.0 0.006 )	// 336
	 ( 0.0005493550000000001 0.0 0.006 )	// 337
	 ( 0.0005493550000000001 0.000576666 0.006 )	// 338
	 ( 0.0 0.000576666 0.006 )	// 339
	 ( 0.0 0.0 0.1145 )	// 340
	 ( 0.0005493550000000001 0.0 0.1145 )	// 341
	 ( 0.0005493550000000001 0.000576666 0.1145 )	// 342
	 ( 0.0 0.000576666 0.1145 )	// 343
	 ( 0.0005493550000000001 0.0 0.006 )	// 344
	 ( 0.0006250000000000001 0.0 0.006 )	// 345
	 ( 0.0006250000000000001 0.000576666 0.006 )	// 346
	 ( 0.0005493550000000001 0.000576666 0.006 )	// 347
	 ( 0.0005493550000000001 0.0 0.1145 )	// 348
	 ( 0.0006250000000000001 0.0 0.1145 )	// 349
	 ( 0.0006250000000000001 0.000576666 0.1145 )	// 350
	 ( 0.0005493550000000001 0.000576666 0.1145 )	// 351
	 ( 0.0006250000000000001 0.0 0.006 )	// 352
	 ( 0.0008410000000000002 0.0 0.006 )	// 353
	 ( 0.0008410000000000002 0.000576666 0.006 )	// 354
	 ( 0.0006250000000000001 0.000576666 0.006 )	// 355
	 ( 0.0006250000000000001 0.0 0.1145 )	// 356
	 ( 0.0008410000000000002 0.0 0.1145 )	// 357
	 ( 0.0008410000000000002 0.000576666 0.1145 )	// 358
	 ( 0.0006250000000000001 0.000576666 0.1145 )	// 359
	 ( 0.0008410000000000002 0.0 0.006 )	// 360
	 ( 0.0008497790000000003 0.0 0.006 )	// 361
	 ( 0.0009166450000000002 0.000576666 0.006 )	// 362
	 ( 0.0008410000000000002 0.000576666 0.006 )	// 363
	 ( 0.0008410000000000002 0.0 0.1145 )	// 364
	 ( 0.0008497790000000003 0.0 0.1145 )	// 365
	 ( 0.0009166450000000002 0.000576666 0.1145 )	// 366
	 ( 0.0008410000000000002 0.000576666 0.1145 )	// 367
	 ( 0.0008497790000000003 0.0 0.006 )	// 368
	 ( 0.0014660000000000003 0.0 0.006 )	// 369
	 ( 0.0014660000000000003 0.0006190459999999999 0.006 )	// 370
	 ( 0.0009166450000000002 0.000576666 0.006 )	// 371
	 ( 0.0008497790000000003 0.0 0.1145 )	// 372
	 ( 0.0014660000000000003 0.0 0.1145 )	// 373
	 ( 0.0014660000000000003 0.0006190459999999999 0.1145 )	// 374
	 ( 0.0009166450000000002 0.000576666 0.1145 )	// 375
	 ( 0.0 0.000576666 0.006 )	// 376
	 ( 0.0005493550000000001 0.000576666 0.006 )	// 377
	 ( 0.0005493550000000001 0.000625 0.006 )	// 378
	 ( 0.0 0.000625 0.006 )	// 379
	 ( 0.0 0.000576666 0.1145 )	// 380
	 ( 0.0005493550000000001 0.000576666 0.1145 )	// 381
	 ( 0.0005493550000000001 0.000625 0.1145 )	// 382
	 ( 0.0 0.000625 0.1145 )	// 383
	 ( 0.0005493550000000001 0.000576666 0.006 )	// 384
	 ( 0.0006250000000000001 0.000576666 0.006 )	// 385
	 ( 0.0006250000000000001 0.000625 0.006 )	// 386
	 ( 0.0005493550000000001 0.000625 0.006 )	// 387
	 ( 0.0005493550000000001 0.000576666 0.1145 )	// 388
	 ( 0.0006250000000000001 0.000576666 0.1145 )	// 389
	 ( 0.0006250000000000001 0.000625 0.1145 )	// 390
	 ( 0.0005493550000000001 0.000625 0.1145 )	// 391
	 ( 0.0006250000000000001 0.000576666 0.006 )	// 392
	 ( 0.0008410000000000002 0.000576666 0.006 )	// 393
	 ( 0.0008410000000000002 0.000625 0.006 )	// 394
	 ( 0.0006250000000000001 0.000625 0.006 )	// 395
	 ( 0.0006250000000000001 0.000576666 0.1145 )	// 396
	 ( 0.0008410000000000002 0.000576666 0.1145 )	// 397
	 ( 0.0008410000000000002 0.000625 0.1145 )	// 398
	 ( 0.0006250000000000001 0.000625 0.1145 )	// 399
	 ( 0.0008410000000000002 0.000576666 0.006 )	// 400
	 ( 0.0009166450000000002 0.000576666 0.006 )	// 401
	 ( 0.0009166450000000002 0.000625 0.006 )	// 402
	 ( 0.0008410000000000002 0.000625 0.006 )	// 403
	 ( 0.0008410000000000002 0.000576666 0.1145 )	// 404
	 ( 0.0009166450000000002 0.000576666 0.1145 )	// 405
	 ( 0.0009166450000000002 0.000625 0.1145 )	// 406
	 ( 0.0008410000000000002 0.000625 0.1145 )	// 407
	 ( 0.0009166450000000002 0.000576666 0.006 )	// 408
	 ( 0.0014660000000000003 0.0006190459999999999 0.006 )	// 409
	 ( 0.0014660000000000003 0.000625 0.006 )	// 410
	 ( 0.0009166450000000002 0.000625 0.006 )	// 411
	 ( 0.0009166450000000002 0.000576666 0.1145 )	// 412
	 ( 0.0014660000000000003 0.0006190459999999999 0.1145 )	// 413
	 ( 0.0014660000000000003 0.000625 0.1145 )	// 414
	 ( 0.0009166450000000002 0.000625 0.1145 )	// 415
	 ( 0.0 0.000625 0.006 )	// 416
	 ( 0.0005493550000000001 0.000625 0.006 )	// 417
	 ( 0.0005493550000000001 0.000841 0.006 )	// 418
	 ( 0.0 0.000841 0.006 )	// 419
	 ( 0.0 0.000625 0.1145 )	// 420
	 ( 0.0005493550000000001 0.000625 0.1145 )	// 421
	 ( 0.0005493550000000001 0.000841 0.1145 )	// 422
	 ( 0.0 0.000841 0.1145 )	// 423
	 ( 0.0005493550000000001 0.000625 0.006 )	// 424
	 ( 0.0006250000000000001 0.000625 0.006 )	// 425
	 ( 0.0006250000000000001 0.000841 0.006 )	// 426
	 ( 0.0005493550000000001 0.000841 0.006 )	// 427
	 ( 0.0005493550000000001 0.000625 0.1145 )	// 428
	 ( 0.0006250000000000001 0.000625 0.1145 )	// 429
	 ( 0.0006250000000000001 0.000841 0.1145 )	// 430
	 ( 0.0005493550000000001 0.000841 0.1145 )	// 431
	 ( 0.0006250000000000001 0.000625 0.006 )	// 432
	 ( 0.0008410000000000002 0.000625 0.006 )	// 433
	 ( 0.0008410000000000002 0.000841 0.006 )	// 434
	 ( 0.0006250000000000001 0.000841 0.006 )	// 435
	 ( 0.0006250000000000001 0.000625 0.1145 )	// 436
	 ( 0.0008410000000000002 0.000625 0.1145 )	// 437
	 ( 0.0008410000000000002 0.000841 0.1145 )	// 438
	 ( 0.0006250000000000001 0.000841 0.1145 )	// 439
	 ( 0.0008410000000000002 0.000625 0.006 )	// 440
	 ( 0.0009166450000000002 0.000625 0.006 )	// 441
	 ( 0.0009166450000000002 0.000841 0.006 )	// 442
	 ( 0.0008410000000000002 0.000841 0.006 )	// 443
	 ( 0.0008410000000000002 0.000625 0.1145 )	// 444
	 ( 0.0009166450000000002 0.000625 0.1145 )	// 445
	 ( 0.0009166450000000002 0.000841 0.1145 )	// 446
	 ( 0.0008410000000000002 0.000841 0.1145 )	// 447
	 ( 0.0009166450000000002 0.000625 0.006 )	// 448
	 ( 0.0014660000000000003 0.000625 0.006 )	// 449
	 ( 0.0014660000000000003 0.000841 0.006 )	// 450
	 ( 0.0009166450000000002 0.000841 0.006 )	// 451
	 ( 0.0009166450000000002 0.000625 0.1145 )	// 452
	 ( 0.0014660000000000003 0.000625 0.1145 )	// 453
	 ( 0.0014660000000000003 0.000841 0.1145 )	// 454
	 ( 0.0009166450000000002 0.000841 0.1145 )	// 455
	 ( 0.0 0.000841 0.006 )	// 456
	 ( 0.0005493550000000001 0.000841 0.006 )	// 457
	 ( 0.0005493550000000001 0.000889334 0.006 )	// 458
	 ( 0.0 0.000846954 0.006 )	// 459
	 ( 0.0 0.000841 0.1145 )	// 460
	 ( 0.0005493550000000001 0.000841 0.1145 )	// 461
	 ( 0.0005493550000000001 0.000889334 0.1145 )	// 462
	 ( 0.0 0.000846954 0.1145 )	// 463
	 ( 0.0005493550000000001 0.000841 0.006 )	// 464
	 ( 0.0006250000000000001 0.000841 0.006 )	// 465
	 ( 0.0006250000000000001 0.000889334 0.006 )	// 466
	 ( 0.0005493550000000001 0.000889334 0.006 )	// 467
	 ( 0.0005493550000000001 0.000841 0.1145 )	// 468
	 ( 0.0006250000000000001 0.000841 0.1145 )	// 469
	 ( 0.0006250000000000001 0.000889334 0.1145 )	// 470
	 ( 0.0005493550000000001 0.000889334 0.1145 )	// 471
	 ( 0.0006250000000000001 0.000841 0.006 )	// 472
	 ( 0.0008410000000000002 0.000841 0.006 )	// 473
	 ( 0.0008410000000000002 0.000889334 0.006 )	// 474
	 ( 0.0006250000000000001 0.000889334 0.006 )	// 475
	 ( 0.0006250000000000001 0.000841 0.1145 )	// 476
	 ( 0.0008410000000000002 0.000841 0.1145 )	// 477
	 ( 0.0008410000000000002 0.000889334 0.1145 )	// 478
	 ( 0.0006250000000000001 0.000889334 0.1145 )	// 479
	 ( 0.0008410000000000002 0.000841 0.006 )	// 480
	 ( 0.0009166450000000002 0.000841 0.006 )	// 481
	 ( 0.0009166450000000002 0.000889334 0.006 )	// 482
	 ( 0.0008410000000000002 0.000889334 0.006 )	// 483
	 ( 0.0008410000000000002 0.000841 0.1145 )	// 484
	 ( 0.0009166450000000002 0.000841 0.1145 )	// 485
	 ( 0.0009166450000000002 0.000889334 0.1145 )	// 486
	 ( 0.0008410000000000002 0.000889334 0.1145 )	// 487
	 ( 0.0009166450000000002 0.000841 0.006 )	// 488
	 ( 0.0014660000000000003 0.000841 0.006 )	// 489
	 ( 0.0014660000000000003 0.000889334 0.006 )	// 490
	 ( 0.0009166450000000002 0.000889334 0.006 )	// 491
	 ( 0.0009166450000000002 0.000841 0.1145 )	// 492
	 ( 0.0014660000000000003 0.000841 0.1145 )	// 493
	 ( 0.0014660000000000003 0.000889334 0.1145 )	// 494
	 ( 0.0009166450000000002 0.000889334 0.1145 )	// 495
	 ( 0.0 0.000846954 0.006 )	// 496
	 ( 0.0005493550000000001 0.000889334 0.006 )	// 497
	 ( 0.000616221 0.0014659999999999999 0.006 )	// 498
	 ( 0.0 0.0014659999999999999 0.006 )	// 499
	 ( 0.0 0.000846954 0.1145 )	// 500
	 ( 0.0005493550000000001 0.000889334 0.1145 )	// 501
	 ( 0.000616221 0.0014659999999999999 0.1145 )	// 502
	 ( 0.0 0.0014659999999999999 0.1145 )	// 503
	 ( 0.0005493550000000001 0.000889334 0.006 )	// 504
	 ( 0.0006250000000000001 0.000889334 0.006 )	// 505
	 ( 0.0006250000000000001 0.0014659999999999999 0.006 )	// 506
	 ( 0.000616221 0.0014659999999999999 0.006 )	// 507
	 ( 0.0005493550000000001 0.000889334 0.1145 )	// 508
	 ( 0.0006250000000000001 0.000889334 0.1145 )	// 509
	 ( 0.0006250000000000001 0.0014659999999999999 0.1145 )	// 510
	 ( 0.000616221 0.0014659999999999999 0.1145 )	// 511
	 ( 0.0006250000000000001 0.000889334 0.006 )	// 512
	 ( 0.0008410000000000002 0.000889334 0.006 )	// 513
	 ( 0.0008410000000000002 0.0014659999999999999 0.006 )	// 514
	 ( 0.0006250000000000001 0.0014659999999999999 0.006 )	// 515
	 ( 0.0006250000000000001 0.000889334 0.1145 )	// 516
	 ( 0.0008410000000000002 0.000889334 0.1145 )	// 517
	 ( 0.0008410000000000002 0.0014659999999999999 0.1145 )	// 518
	 ( 0.0006250000000000001 0.0014659999999999999 0.1145 )	// 519
	 ( 0.0008410000000000002 0.000889334 0.006 )	// 520
	 ( 0.0009166450000000002 0.000889334 0.006 )	// 521
	 ( 0.0009166450000000002 0.0014659999999999999 0.006 )	// 522
	 ( 0.0008410000000000002 0.0014659999999999999 0.006 )	// 523
	 ( 0.0008410000000000002 0.000889334 0.1145 )	// 524
	 ( 0.0009166450000000002 0.000889334 0.1145 )	// 525
	 ( 0.0009166450000000002 0.0014659999999999999 0.1145 )	// 526
	 ( 0.0008410000000000002 0.0014659999999999999 0.1145 )	// 527
	 ( 0.0009166450000000002 0.000889334 0.006 )	// 528
	 ( 0.0014660000000000003 0.000889334 0.006 )	// 529
	 ( 0.0014660000000000003 0.0014659999999999999 0.006 )	// 530
	 ( 0.0009166450000000002 0.0014659999999999999 0.006 )	// 531
	 ( 0.0009166450000000002 0.000889334 0.1145 )	// 532
	 ( 0.0014660000000000003 0.000889334 0.1145 )	// 533
	 ( 0.0014660000000000003 0.0014659999999999999 0.1145 )	// 534
	 ( 0.0009166450000000002 0.0014659999999999999 0.1145 )	// 535
	 ( 0.0 0.0 0.1145 )	// 536
	 ( 0.0005493550000000001 0.0 0.1145 )	// 537
	 ( 0.0005493550000000001 0.000576666 0.1145 )	// 538
	 ( 0.0 0.000576666 0.1145 )	// 539
	 ( 0.0 0.0 0.11750000000000001 )	// 540
	 ( 0.0005493550000000001 0.0 0.11750000000000001 )	// 541
	 ( 0.0005493550000000001 0.000576666 0.11750000000000001 )	// 542
	 ( 0.0 0.000576666 0.11750000000000001 )	// 543
	 ( 0.0005493550000000001 0.0 0.1145 )	// 544
	 ( 0.0006250000000000001 0.0 0.1145 )	// 545
	 ( 0.0006250000000000001 0.000576666 0.1145 )	// 546
	 ( 0.0005493550000000001 0.000576666 0.1145 )	// 547
	 ( 0.0005493550000000001 0.0 0.11750000000000001 )	// 548
	 ( 0.0006250000000000001 0.0 0.11750000000000001 )	// 549
	 ( 0.0006250000000000001 0.000576666 0.11750000000000001 )	// 550
	 ( 0.0005493550000000001 0.000576666 0.11750000000000001 )	// 551
	 ( 0.0006250000000000001 0.0 0.1145 )	// 552
	 ( 0.0008410000000000002 0.0 0.1145 )	// 553
	 ( 0.0008410000000000002 0.000576666 0.1145 )	// 554
	 ( 0.0006250000000000001 0.000576666 0.1145 )	// 555
	 ( 0.0006250000000000001 0.0 0.11750000000000001 )	// 556
	 ( 0.0008410000000000002 0.0 0.11750000000000001 )	// 557
	 ( 0.0008410000000000002 0.000576666 0.11750000000000001 )	// 558
	 ( 0.0006250000000000001 0.000576666 0.11750000000000001 )	// 559
	 ( 0.0 0.000576666 0.1145 )	// 560
	 ( 0.0005493550000000001 0.000576666 0.1145 )	// 561
	 ( 0.0005493550000000001 0.000625 0.1145 )	// 562
	 ( 0.0 0.000625 0.1145 )	// 563
	 ( 0.0 0.000576666 0.11750000000000001 )	// 564
	 ( 0.0005493550000000001 0.000576666 0.11750000000000001 )	// 565
	 ( 0.0005493550000000001 0.000625 0.11750000000000001 )	// 566
	 ( 0.0 0.000625 0.11750000000000001 )	// 567
	 ( 0.0005493550000000001 0.000576666 0.1145 )	// 568
	 ( 0.0006250000000000001 0.000576666 0.1145 )	// 569
	 ( 0.0006250000000000001 0.000625 0.1145 )	// 570
	 ( 0.0005493550000000001 0.000625 0.1145 )	// 571
	 ( 0.0005493550000000001 0.000576666 0.11750000000000001 )	// 572
	 ( 0.0006250000000000001 0.000576666 0.11750000000000001 )	// 573
	 ( 0.0006250000000000001 0.000625 0.11750000000000001 )	// 574
	 ( 0.0005493550000000001 0.000625 0.11750000000000001 )	// 575
	 ( 0.0006250000000000001 0.000576666 0.1145 )	// 576
	 ( 0.0008410000000000002 0.000576666 0.1145 )	// 577
	 ( 0.0008410000000000002 0.000625 0.1145 )	// 578
	 ( 0.0006250000000000001 0.000625 0.1145 )	// 579