/*--------------------------------*- C++ -*----------------------------------*\
| =========                 |                                                 |
| \\      /  F ield         | OpenFOAM: The Open Source CFD Toolbox           |
|  \\    /   O peration     | Version:  4.1                                   |
|   \\  /    A nd           | Web:      www.OpenFOAM.org                      |
|    \\/     M anipulation  |                                                 |
\*---------------------------------------------------------------------------*/
FoamFile
{
    version     2.0;
    format      ascii;
    class       volScalarField;
    location    "0";
    object      T;
}
// * * * * * * * * * * * * * * * * * * * * * * * * * * * * * * * * * * * * * //

dimensions      [0 0 0 1 0 0 0];

//~internalField   uniform 873;
internalField   uniform 400.0;

boundaryField
{
    inlet
    {
        type            fixedValue;
        //~ value           $internalField; // 34.6 degC
        //~value           uniform 873.0;
        value           uniform 400.0;
    }
    
    outlet
    {
        type            zeroGradient;
    }
    
    walls
    //~ {
        //~ type            fixedValue;
        //~ value           $internalField; // 115 degC
    //~ }
    {
        type            zeroGradient;
    }

    "(symmetry).*"
    {
        type            symmetryPlane;
    }
    
    defaultFaces
    {
        type            empty;
    }
}
